resultados/CN15/CN15_EXP_VOLTAGES.CSV
Bus, BasekV, Node1, Magnitude1, Angle1, pu1, Node2, Magnitude2, Angle2, pu2, Node3, Magnitude3, Angle3, pu3
"CN_ALCN15", 13.8, 1,    7951.31,   -0.1,   0.99798, 2,    7951.31, -120.1,   0.99798, 3,    7951.31,  119.9,   0.99798
"SCN_CN15_9153_CEI109", 13.8, 1,    5606.31,   -1.9,   0.70365, 2,    5606.28, -121.9,   0.70365, 3,     5606.3,  118.1,   0.70365
"SCN_CN15_9154_CEI109", 13.8, 1,    5606.33,   -1.9,   0.70366, 2,    5606.31, -121.9,   0.70365, 3,    5606.33,  118.1,   0.70366
"SCN_CN15_9098_CEI131_ATV", 13.8, 1,    5742.55,   -1.8,   0.72075, 2,    5742.53, -121.8,   0.72075, 3,    5742.55,  118.2,   0.72075
"SCN_CN15_9097_CEI131_ATV", 13.8, 1,    5742.56,   -1.8,   0.72075, 2,    5742.54, -121.8,   0.72075, 3,    5742.56,  118.2,   0.72075
"SCN_CN15_9079_CEI201_ATV", 13.8, 1,    5839.15,   -1.7,   0.73288, 2,    5839.12, -121.7,   0.73287, 3,    5839.14,  118.3,   0.73288
"SCN_CN15_9080_CEI201_ATV", 13.8, 1,    5839.13,   -1.7,   0.73288, 2,    5839.11, -121.7,   0.73287, 3,    5839.13,  118.3,   0.73287
"SCN_CN15_9356_CEI109", 13.8, 1,    5564.82,   -2.0,   0.69845, 2,    5564.79, -122.0,   0.69844, 3,    5564.81,  118.0,   0.69844
"SCN_CN15_9349_CEI109", 13.8, 1,    5565.53,   -2.0,   0.69854, 2,    5565.51, -122.0,   0.69853, 3,    5565.53,  118.0,   0.69853
"SCN_CN15_9039_CEI201_ATV", 13.8, 1,    5565.88,   -2.0,   0.69858, 2,    5565.86, -122.0,   0.69858, 3,    5565.88,  118.0,   0.69858
"SCN_CN15_9021_CEI201_ATV", 13.8, 1,    5559.36,   -2.0,   0.69776, 2,    5559.34, -122.0,   0.69776, 3,    5559.36,  118.0,   0.69776
"SCN_CN15_9022_CEI201_ATV", 13.8, 1,    5559.65,   -2.0,    0.6978, 2,    5559.63, -122.0,   0.69779, 3,    5559.65,  118.0,    0.6978
"SCN_CN15_9274_CEI109", 13.8, 1,    5667.33,   -1.8,   0.71131, 2,    5667.31, -121.8,   0.71131, 3,    5667.32,  118.2,   0.71131
"SCN_CN15_9275_CEI109", 13.8, 1,    5665.32,   -1.8,   0.71106, 2,    5665.29, -121.8,   0.71106, 3,    5665.31,  118.2,   0.71106
"SCN_CN15_9269_CEI109", 13.8, 1,    5669.33,   -1.8,   0.71156, 2,     5669.3, -121.8,   0.71156, 3,    5669.32,  118.2,   0.71156
"SCN_CN15_9053_CEI201_ATV", 13.8, 1,    5569.08,   -1.9,   0.69898, 2,    5569.05, -121.9,   0.69898, 3,    5569.07,  118.1,   0.69898
"SCN_CN15_9485_CEI109", 13.8, 1,    5569.11,   -1.9,   0.69898, 2,    5569.08, -121.9,   0.69898, 3,     5569.1,  118.1,   0.69898
"SCN_CN15_421165_CEI", 13.8, 1,     5854.9,   -1.7,   0.73485, 2,    5854.87, -121.7,   0.73485, 3,    5854.89,  118.3,   0.73485
"SCN_CN15_421166_CEI", 13.8, 1,    5855.76,   -1.7,   0.73496, 2,    5855.73, -121.7,   0.73496, 3,    5855.75,  118.3,   0.73496
"SCN_CN15_9143_CEI69B", 13.8, 1,    5856.51,   -1.7,   0.73506, 2,    5856.49, -121.7,   0.73505, 3,     5856.5,  118.3,   0.73506
"SCN_CN15_9141_CEI201_ATV", 13.8, 1,     5854.9,   -1.7,   0.73485, 2,    5854.87, -121.7,   0.73485, 3,    5854.89,  118.3,   0.73485
"SCN_CN15_9129_CEI201_ATV", 13.8, 1,    5861.19,   -1.7,   0.73564, 2,    5861.16, -121.7,   0.73564, 3,    5861.18,  118.3,   0.73564
"SCN_CN15_9008_CEI220_ATV", 13.8, 1,    5861.19,   -1.7,   0.73564, 2,    5861.16, -121.7,   0.73564, 3,    5861.18,  118.3,   0.73564
"SCN_CN15_421168_CEI", 13.8, 1,    5718.06,   -1.8,   0.71768, 2,    5718.04, -121.8,   0.71768, 3,    5718.05,  118.2,   0.71768
"SCN_CN15_9015_CEI109", 13.8, 1,    5718.06,   -1.8,   0.71768, 2,    5718.04, -121.8,   0.71768, 3,    5718.05,  118.2,   0.71768
"SCN_CN15_421185_CEI", 13.8, 1,     5769.2,   -1.7,    0.7241, 2,    5769.18, -121.7,   0.72409, 3,    5769.19,  118.3,    0.7241
"SCN_CN15_9162_CEI220_ATV_S", 13.8, 1,    5766.55,   -1.7,   0.72377, 2,    5766.53, -121.7,   0.72376, 3,    5766.55,  118.3,   0.72376
"SCN_CN15_421186_CEI", 13.8, 1,    5771.18,   -1.7,   0.72435, 2,    5771.16, -121.7,   0.72434, 3,    5771.17,  118.3,   0.72435
"SCN_CN15_421187_CEI", 13.8, 1,    5773.49,   -1.7,   0.72464, 2,    5773.47, -121.7,   0.72463, 3,    5773.49,  118.3,   0.72464
"SCN_CN15_421169_CEI", 13.8, 1,    5776.79,   -1.7,   0.72505, 2,    5776.77, -121.7,   0.72505, 3,    5776.79,  118.3,   0.72505
"SCN_CN15_9012_CEI120", 13.8, 1,    5774.81,   -1.7,    0.7248, 2,    5774.79, -121.7,    0.7248, 3,    5774.81,  118.3,    0.7248
"SCN_CN15_421170_CEI", 13.8, 1,    5789.05,   -1.7,   0.72659, 2,    5789.03, -121.7,   0.72659, 3,    5789.05,  118.3,   0.72659
"SCN_CN15_421171_CEI", 13.8, 1,    5789.05,   -1.7,   0.72659, 2,    5789.03, -121.7,   0.72659, 3,    5789.05,  118.3,   0.72659
"SCN_CN15_421172_CEI", 13.8, 1,    5789.05,   -1.7,   0.72659, 2,    5789.03, -121.7,   0.72659, 3,    5789.05,  118.3,   0.72659
"SCN_CN15_421173_CEI", 13.8, 1,    5789.05,   -1.7,   0.72659, 2,    5789.03, -121.7,   0.72659, 3,    5789.05,  118.3,   0.72659
"SCN_CN15_421174_CEI", 13.8, 1,    5789.05,   -1.7,   0.72659, 2,    5789.03, -121.7,   0.72659, 3,    5789.05,  118.3,   0.72659
"SCN_CN15_421175_CEI", 13.8, 1,    5799.74,   -1.7,   0.72793, 2,    5799.71, -121.7,   0.72793, 3,    5799.73,  118.3,   0.72793
"SCN_CN15_421176_CEI", 13.8, 1,    5799.74,   -1.7,   0.72793, 2,    5799.71, -121.7,   0.72793, 3,    5799.73,  118.3,   0.72793
"SCN_CN15_421177_CEI", 13.8, 1,    5799.74,   -1.7,   0.72793, 2,    5799.71, -121.7,   0.72793, 3,    5799.73,  118.3,   0.72793
"SCN_CN15_421178_CEI", 13.8, 1,    5799.74,   -1.7,   0.72793, 2,    5799.71, -121.7,   0.72793, 3,    5799.73,  118.3,   0.72793
"SCN_CN15_421179_CEI", 13.8, 1,    5822.36,   -1.7,   0.73077, 2,    5822.34, -121.7,   0.73077, 3,    5822.36,  118.3,   0.73077
"SCN_CN15_9047_CEI130_ATV", 13.8, 1,    5853.91,   -1.7,   0.73473, 2,    5853.89, -121.7,   0.73473, 3,     5853.9,  118.3,   0.73473
"SCN_CN15_421180_CEI", 13.8, 1,    5853.91,   -1.7,   0.73473, 2,    5853.89, -121.7,   0.73473, 3,     5853.9,  118.3,   0.73473
"SCN_CN15_9037_CEI130_ATV", 13.8, 1,    5897.05,   -1.6,   0.74014, 2,    5897.03, -121.6,   0.74014, 3,    5897.05,  118.4,   0.74014
"SCN_CN15_9047_CEI130_ATV_S", 13.8, 1,    5853.91,   -1.7,   0.73473, 2,    5853.89, -121.7,   0.73473, 3,     5853.9,  118.3,   0.73473
"SCN_CN15_421181_CEI", 13.8, 1,    5908.61,   -1.6,   0.74159, 2,    5908.58, -121.6,   0.74159, 3,     5908.6,  118.4,   0.74159
"SCN_CN15_9040_CEI130_ATV", 13.8, 1,    5908.61,   -1.6,   0.74159, 2,    5908.58, -121.6,   0.74159, 3,     5908.6,  118.4,   0.74159
"SCN_CN15_421182_CEI", 13.8, 1,    5908.61,   -1.6,   0.74159, 2,    5908.58, -121.6,   0.74159, 3,     5908.6,  118.4,   0.74159
"SCN_CN15_421183_CEI", 13.8, 1,    5908.61,   -1.6,   0.74159, 2,    5908.58, -121.6,   0.74159, 3,     5908.6,  118.4,   0.74159
"SCN_CN15_421184_CEI", 13.8, 1,    5908.61,   -1.6,   0.74159, 2,    5908.58, -121.6,   0.74159, 3,     5908.6,  118.4,   0.74159
"SCN_CN15_421195_CEI", 13.8, 1,    5961.74,   -1.6,   0.74826, 2,    5961.72, -121.6,   0.74826, 3,    5961.73,  118.4,   0.74826
"SCN_CN15_9022_CEI250_ATV", 13.8, 1,    5959.18,   -1.6,   0.74794, 2,    5959.16, -121.6,   0.74794, 3,    5959.18,  118.4,   0.74794
"SCN_CN15_421196_CEI", 13.8, 1,    5964.59,   -1.6,   0.74862, 2,    5964.57, -121.6,   0.74862, 3,    5964.59,  118.4,   0.74862
"SCN_CN15_9025_CEI130_ATV", 13.8, 1,    5966.93,   -1.6,   0.74892, 2,    5966.91, -121.6,   0.74891, 3,    5966.93,  118.4,   0.74891
"SCN_CN15_421197_CEI", 13.8, 1,    5853.49,   -1.7,   0.73468, 2,    5853.47, -121.7,   0.73467, 3,    5853.49,  118.3,   0.73468
"SCN_CN15_9004_CEI160_ATV", 13.8, 1,    5853.49,   -1.7,   0.73468, 2,    5853.47, -121.7,   0.73467, 3,    5853.49,  118.3,   0.73468
"SCN_CN15_9005_CEI160_ATV", 13.8, 1,    5853.49,   -1.7,   0.73468, 2,    5853.47, -121.7,   0.73467, 3,    5853.49,  118.3,   0.73468
"SCN_CN15_9017_CEI130A_ATV", 13.8, 1,    6171.16,   -1.4,   0.77455, 2,    6171.14, -121.4,   0.77455, 3,    6171.16,  118.6,   0.77455
"SCN_CN15_421206_CEI", 13.8, 1,    6171.16,   -1.4,   0.77455, 2,    6171.14, -121.4,   0.77455, 3,    6171.16,  118.6,   0.77455
"SCN_CN15_9034_CEI130A_ATV", 13.8, 1,    6169.44,   -1.4,   0.77433, 2,    6169.42, -121.4,   0.77433, 3,    6169.44,  118.6,   0.77433
"SCN_CN15_421207_CEI", 13.8, 1,    6169.44,   -1.4,   0.77433, 2,    6169.42, -121.4,   0.77433, 3,    6169.44,  118.6,   0.77433
"SCN_CN15_421208_CEI", 13.8, 1,    6169.44,   -1.4,   0.77433, 2,    6169.42, -121.4,   0.77433, 3,    6169.44,  118.6,   0.77433
"SCN_CN15_421209_CEI", 13.8, 1,    6169.44,   -1.4,   0.77433, 2,    6169.42, -121.4,   0.77433, 3,    6169.44,  118.6,   0.77433
"SCN_CN15_421210_CEI", 13.8, 1,    6169.44,   -1.4,   0.77433, 2,    6169.42, -121.4,   0.77433, 3,    6169.44,  118.6,   0.77433
"SCN_CN15_421211_CEI", 13.8, 1,    6169.44,   -1.4,   0.77433, 2,    6169.42, -121.4,   0.77433, 3,    6169.44,  118.6,   0.77433
"SCN_CN15_421212_CEI", 13.8, 1,    6169.44,   -1.4,   0.77433, 2,    6169.42, -121.4,   0.77433, 3,    6169.44,  118.6,   0.77433
"SCN_CN15_9040_CEI130A_ATV", 13.8, 1,     6169.3,   -1.4,   0.77431, 2,    6169.28, -121.4,   0.77431, 3,    6169.29,  118.6,   0.77431
"SCN_CN15_421213_CEI", 13.8, 1,     6169.3,   -1.4,   0.77431, 2,    6169.28, -121.4,   0.77431, 3,    6169.29,  118.6,   0.77431
"SCN_CN15_421218_CEI", 13.8, 1,    7925.34,   -0.2,   0.99472, 2,    7925.34, -120.2,   0.99472, 3,    7925.34,  119.8,   0.99472
"SCN_CN15_9353_CEI065", 13.8, 1,     7915.5,   -0.2,   0.99348, 2,     7915.5, -120.2,   0.99348, 3,     7915.5,  119.8,   0.99348
"SCN_CN15_421219_CEI", 13.8, 1,    7935.64,   -0.1,   0.99601, 2,    7935.64, -120.1,   0.99601, 3,    7935.64,  119.9,   0.99601
"SCN_CN15_421227_CEI", 13.8, 1,    5753.55,   -1.8,   0.72213, 2,    5753.52, -121.8,   0.72213, 3,    5753.54,  118.2,   0.72213
"SCN_CN15_9006_CEIRJ013_ATV", 13.8, 1,    5753.55,   -1.8,   0.72213, 2,    5753.52, -121.8,   0.72213, 3,    5753.54,  118.2,   0.72213
"SCN_CN15_9067_CEIRJ006_ATV", 13.8, 1,    5758.39,   -1.8,   0.72274, 2,    5758.37, -121.8,   0.72274, 3,    5758.38,  118.2,   0.72274
"SCN_CN15_9064_CEIRJ006_ATV", 13.8, 1,    5758.39,   -1.8,   0.72274, 2,    5758.37, -121.8,   0.72274, 3,    5758.38,  118.2,   0.72274
"SCN_CN15_421241_CEI", 13.8, 1,    5758.39,   -1.8,   0.72274, 2,    5758.37, -121.8,   0.72274, 3,    5758.38,  118.2,   0.72274
"SCN_CN15_9068_CEIRJ006_ATV", 13.8, 1,    5758.39,   -1.8,   0.72274, 2,    5758.37, -121.8,   0.72274, 3,    5758.38,  118.2,   0.72274
"SCN_CN15_9050_CEI160_ATV", 13.8, 1,    5906.53,   -1.6,   0.74133, 2,     5906.5, -121.6,   0.74133, 3,    5906.52,  118.4,   0.74133
"SCN_CN15_9014_CEI077_ATV", 13.8, 1,    5906.82,   -1.6,   0.74137, 2,     5906.8, -121.6,   0.74137, 3,    5906.82,  118.4,   0.74137
"SCN_CN15_9052_CEI160_ATV", 13.8, 1,    5906.53,   -1.6,   0.74133, 2,     5906.5, -121.6,   0.74133, 3,    5906.52,  118.4,   0.74133
"SCN_CN15_421244_CEI", 13.8, 1,    5906.25,   -1.6,    0.7413, 2,    5906.22, -121.6,    0.7413, 3,    5906.24,  118.4,    0.7413
"SCN_CN15_421245_CEI", 13.8, 1,    5905.96,   -1.6,   0.74126, 2,    5905.94, -121.6,   0.74126, 3,    5905.96,  118.4,   0.74126
"SCN_CN15_9005_CEIRJ012_ATV_S", 13.8, 1,    5905.68,   -1.6,   0.74123, 2,    5905.66, -121.6,   0.74122, 3,    5905.68,  118.4,   0.74123
"SCN_CN15_9024_CEI167_ATV", 13.8, 1,     5853.7,   -1.7,    0.7347, 2,    5853.67, -121.7,    0.7347, 3,    5853.69,  118.3,    0.7347
"SCN_CN15_9025_CEI167_ATV", 13.8, 1,     5853.7,   -1.7,    0.7347, 2,    5853.67, -121.7,    0.7347, 3,    5853.69,  118.3,    0.7347
"SCN_CN15_9002_CEIRJ013_ATV", 13.8, 1,     5853.7,   -1.7,    0.7347, 2,    5853.67, -121.7,    0.7347, 3,    5853.69,  118.3,    0.7347
"SCN_CN15_9037_CEI77A_ATV", 13.8, 1,    5855.66,   -1.7,   0.73495, 2,    5855.64, -121.7,   0.73495, 3,    5855.66,  118.3,   0.73495
"SCN_CN15_9035_CEIRJ006_ATV", 13.8, 1,    5855.66,   -1.7,   0.73495, 2,    5855.64, -121.7,   0.73495, 3,    5855.66,  118.3,   0.73495
"SCN_CN15_9036_CEIRJ006_ATV", 13.8, 1,    5855.66,   -1.7,   0.73495, 2,    5855.64, -121.7,   0.73495, 3,    5855.66,  118.3,   0.73495
"SCN_CN15_9105_CEI201_ATV", 13.8, 1,    5838.13,   -1.7,   0.73275, 2,    5838.11, -121.7,   0.73275, 3,    5838.12,  118.3,   0.73275
"SCN_CN15_9102_CEI201_ATV_S", 13.8, 1,    5838.06,   -1.7,   0.73274, 2,    5838.03, -121.7,   0.73274, 3,    5838.05,  118.3,   0.73274
"SCN_CN15_9017_CEI201_ATV", 13.8, 1,     5558.4,   -2.0,   0.69764, 2,    5558.38, -122.0,   0.69764, 3,     5558.4,  118.0,   0.69764
"SCN_CN15_9019_CEI201_ATV", 13.8, 1,     5558.6,   -2.0,   0.69767, 2,    5558.58, -122.0,   0.69766, 3,     5558.6,  118.0,   0.69766
"SCN_CN15_9019_CEI134C_ATV", 13.8, 1,    5683.93,   -1.8,    0.7134, 2,    5683.91, -121.8,   0.71339, 3,    5683.92,  118.2,   0.71339
"SCN_CN15_9020_CEI134C_ATV", 13.8, 1,     5683.9,   -1.8,   0.71339, 2,    5683.87, -121.8,   0.71339, 3,    5683.89,  118.2,   0.71339
"SCN_CN15_9022_CEI134C_ATV", 13.8, 1,    5683.67,   -1.8,   0.71336, 2,    5683.64, -121.8,   0.71336, 3,    5683.66,  118.2,   0.71336
"SCN_CN15_9021_CEI134C_ATV", 13.8, 1,    5683.59,   -1.8,   0.71335, 2,    5683.57, -121.8,   0.71335, 3,    5683.58,  118.2,   0.71335
"SCN_CN15_9023_CEI134C_ATV", 13.8, 1,    5683.54,   -1.8,   0.71335, 2,    5683.52, -121.8,   0.71334, 3,    5683.53,  118.2,   0.71335
"SCN_CN15_9034_CEI134C_ATV", 13.8, 1,    5683.46,   -1.8,   0.71334, 2,    5683.43, -121.8,   0.71333, 3,    5683.45,  118.2,   0.71334
"SCN_CN15_9035_CEI134C_ATV", 13.8, 1,    5683.38,   -1.8,   0.71333, 2,    5683.36, -121.8,   0.71332, 3,    5683.37,  118.2,   0.71333
"SCN_CN15_9036_CEI134C_ATV", 13.8, 1,    5683.32,   -1.8,   0.71332, 2,     5683.3, -121.8,   0.71332, 3,    5683.31,  118.2,   0.71332
"SCN_CN15_9024_CEI134B_ATV", 13.8, 1,    5688.54,   -1.8,   0.71397, 2,    5688.52, -121.8,   0.71397, 3,    5688.54,  118.2,   0.71397
"SCN_CN15_9027_CEI134B_ATV", 13.8, 1,    5688.51,   -1.8,   0.71397, 2,    5688.49, -121.8,   0.71397, 3,     5688.5,  118.2,   0.71397
"SCN_CN15_9026_CEI134B_ATV", 13.8, 1,    5688.49,   -1.8,   0.71397, 2,    5688.46, -121.8,   0.71396, 3,    5688.48,  118.2,   0.71397
"SCN_CN15_9028_CEI134B_ATV", 13.8, 1,    5688.47,   -1.8,   0.71396, 2,    5688.44, -121.8,   0.71396, 3,    5688.46,  118.2,   0.71396
"SCN_CN15_9011_CEI134_ATV", 13.8, 1,     5710.9,   -1.8,   0.71678, 2,    5710.87, -121.8,   0.71678, 3,    5710.89,  118.2,   0.71678
"SCN_CN15_9009_CEI134A_ATV", 13.8, 1,    5709.97,   -1.8,   0.71666, 2,    5709.95, -121.8,   0.71666, 3,    5709.97,  118.2,   0.71666
"SCN_CN15_9002_CEI134_ATV", 13.8, 1,    5713.57,   -1.8,   0.71712, 2,    5713.55, -121.8,   0.71711, 3,    5713.57,  118.2,   0.71711
"SCN_CN15_9003_CEI134_ATV", 13.8, 1,    5713.61,   -1.8,   0.71712, 2,    5713.59, -121.8,   0.71712, 3,     5713.6,  118.2,   0.71712
"SCN_CN15_9101_CEI109", 13.8, 1,    5715.27,   -1.8,   0.71733, 2,    5715.25, -121.8,   0.71733, 3,    5715.26,  118.2,   0.71733
"SCN_CN15_9102_CEI109", 13.8, 1,    5715.21,   -1.8,   0.71732, 2,    5715.19, -121.8,   0.71732, 3,     5715.2,  118.2,   0.71732
"SCN_CN15_9103_CEI109", 13.8, 1,    5715.16,   -1.8,   0.71732, 2,    5715.14, -121.8,   0.71731, 3,    5715.16,  118.2,   0.71731
"SCN_CN15_9104_CEI109", 13.8, 1,    5715.12,   -1.8,   0.71731, 2,     5715.1, -121.8,   0.71731, 3,    5715.11,  118.2,   0.71731
"SCN_CN15_9105_CEI109", 13.8, 1,    5715.08,   -1.8,    0.7173, 2,    5715.05, -121.8,    0.7173, 3,    5715.07,  118.2,    0.7173
"SCN_CN15_9106_CEI109", 13.8, 1,    5715.03,   -1.8,    0.7173, 2,    5715.01, -121.8,    0.7173, 3,    5715.03,  118.2,    0.7173
"SCN_CN15_9108_CEI109", 13.8, 1,    5714.99,   -1.8,   0.71729, 2,    5714.96, -121.8,   0.71729, 3,    5714.98,  118.2,   0.71729
"SCN_CN15_9109_CEI109", 13.8, 1,    5714.94,   -1.8,   0.71729, 2,    5714.91, -121.8,   0.71728, 3,    5714.93,  118.2,   0.71729
"SCN_CN15_9110_CEI109", 13.8, 1,    5714.89,   -1.8,   0.71728, 2,    5714.87, -121.8,   0.71728, 3,    5714.89,  118.2,   0.71728
"SCN_CN15_9111_CEI109", 13.8, 1,    5714.85,   -1.8,   0.71728, 2,    5714.82, -121.8,   0.71727, 3,    5714.84,  118.2,   0.71727
"SCN_CN15_9112_CEI109", 13.8, 1,    5714.82,   -1.8,   0.71727, 2,     5714.8, -121.8,   0.71727, 3,    5714.82,  118.2,   0.71727
"SCN_CN15_9113_CEI109", 13.8, 1,    5714.79,   -1.8,   0.71727, 2,    5714.76, -121.8,   0.71727, 3,    5714.78,  118.2,   0.71727
"SCN_CN15_9114_CEI109", 13.8, 1,    5714.74,   -1.8,   0.71726, 2,    5714.72, -121.8,   0.71726, 3,    5714.74,  118.2,   0.71726
"SCN_CN15_9115_CEI109", 13.8, 1,    5714.67,   -1.8,   0.71725, 2,    5714.64, -121.8,   0.71725, 3,    5714.66,  118.2,   0.71725
"SCN_CN15_9116_CEI109", 13.8, 1,    5714.63,   -1.8,   0.71725, 2,     5714.6, -121.8,   0.71725, 3,    5714.62,  118.2,   0.71725
"SCN_CN15_9010_CEI120", 13.8, 1,    5771.96,   -1.7,   0.72444, 2,    5771.93, -121.7,   0.72444, 3,    5771.95,  118.3,   0.72444
"SCN_CN15_9011_CEI120", 13.8, 1,    5774.25,   -1.7,   0.72473, 2,    5774.22, -121.7,   0.72473, 3,    5774.24,  118.3,   0.72473
"SCN_CN15_9045_CEI130_ATV", 13.8, 1,    5853.77,   -1.7,   0.73471, 2,    5853.74, -121.7,   0.73471, 3,    5853.76,  118.3,   0.73471
"SCN_CN15_9044_CEI130_ATV", 13.8, 1,    5853.75,   -1.7,   0.73471, 2,    5853.73, -121.7,   0.73471, 3,    5853.75,  118.3,   0.73471
"SCN_CN15_9043_CEI130_ATV", 13.8, 1,    5853.67,   -1.7,    0.7347, 2,    5853.65, -121.7,    0.7347, 3,    5853.67,  118.3,    0.7347
"SCN_CN15_9014_CEI69B", 13.8, 1,    5986.26,   -1.5,   0.75134, 2,    5986.24, -121.5,   0.75134, 3,    5986.26,  118.5,   0.75134
"SCN_CN15_9015_CEI69B", 13.8, 1,    5987.22,   -1.5,   0.75146, 2,     5987.2, -121.5,   0.75146, 3,    5987.21,  118.5,   0.75146
"SCN_CN15_9559_CEI109", 13.8, 1,    5680.43,   -1.8,   0.71296, 2,     5680.4, -121.8,   0.71295, 3,    5680.42,  118.2,   0.71295
"SCN_CN15_9570_CEI109", 13.8, 1,    5680.41,   -1.8,   0.71295, 2,    5680.39, -121.8,   0.71295, 3,    5680.41,  118.2,   0.71295
"SCN_CN15_9558_CEI109", 13.8, 1,    5686.46,   -1.8,   0.71371, 2,    5686.43, -121.8,   0.71371, 3,    5686.45,  118.2,   0.71371
"SCN_CN15_9560_CEI109", 13.8, 1,     5674.8,   -1.8,   0.71225, 2,    5674.78, -121.8,   0.71225, 3,    5674.79,  118.2,   0.71225
"SCN_CN15_9555_CEI109", 13.8, 1,    5693.39,   -1.8,   0.71458, 2,    5693.37, -121.8,   0.71458, 3,    5693.39,  118.2,   0.71458
"SCN_CN15_9552_CEI109", 13.8, 1,    5699.86,   -1.8,   0.71539, 2,    5699.84, -121.8,   0.71539, 3,    5699.85,  118.2,   0.71539
"SCN_CN15_9550_CEI109", 13.8, 1,    5705.51,   -1.8,    0.7161, 2,    5705.49, -121.8,    0.7161, 3,     5705.5,  118.2,    0.7161
"SCN_CN15_9548_CEI109", 13.8, 1,    5710.92,   -1.8,   0.71678, 2,     5710.9, -121.8,   0.71678, 3,    5710.92,  118.2,   0.71678
"SCN_CN15_9017_CEI109", 13.8, 1,    5718.31,   -1.8,   0.71771, 2,    5718.28, -121.8,   0.71771, 3,     5718.3,  118.2,   0.71771
"SCN_CN15_9548_CEI109_S", 13.8, 1,    5710.92,   -1.8,   0.71678, 2,     5710.9, -121.8,   0.71678, 3,    5710.92,  118.2,   0.71678
"SCN_CN15_9016_CEI109", 13.8, 1,    5718.15,   -1.8,   0.71769, 2,    5718.12, -121.8,   0.71769, 3,    5718.14,  118.2,   0.71769
"SCN_CN15_9014_CEI109", 13.8, 1,    5717.92,   -1.8,   0.71766, 2,     5717.9, -121.8,   0.71766, 3,    5717.91,  118.2,   0.71766
"SCN_CN15_9013_CEI109", 13.8, 1,    5717.82,   -1.8,   0.71765, 2,    5717.79, -121.8,   0.71765, 3,    5717.81,  118.2,   0.71765
"SCN_CN15_9012_CEI109", 13.8, 1,    5717.66,   -1.8,   0.71763, 2,    5717.64, -121.8,   0.71763, 3,    5717.65,  118.2,   0.71763
"SCN_CN15_9008_CEI109", 13.8, 1,    5717.54,   -1.8,   0.71761, 2,    5717.52, -121.8,   0.71761, 3,    5717.53,  118.2,   0.71761
"SCN_CN15_9009_CEI109", 13.8, 1,    5717.47,   -1.8,   0.71761, 2,    5717.45, -121.8,    0.7176, 3,    5717.47,  118.2,    0.7176
"SCN_CN15_9010_CEI109", 13.8, 1,    5717.42,   -1.8,    0.7176, 2,     5717.4, -121.8,    0.7176, 3,    5717.42,  118.2,    0.7176
"SCN_CN15_9011_CEI109", 13.8, 1,    5717.36,   -1.8,   0.71759, 2,    5717.34, -121.8,   0.71759, 3,    5717.36,  118.2,   0.71759
"SCN_CN15_9547_CEI109", 13.8, 1,    5710.82,   -1.8,   0.71677, 2,     5710.8, -121.8,   0.71677, 3,    5710.82,  118.2,   0.71677
"SCN_CN15_9007_CEI109", 13.8, 1,    5717.49,   -1.8,   0.71761, 2,    5717.47, -121.8,    0.7176, 3,    5717.48,  118.2,   0.71761
"SCN_CN15_9006_CEI109", 13.8, 1,    5717.46,   -1.8,    0.7176, 2,    5717.43, -121.8,    0.7176, 3,    5717.45,  118.2,    0.7176
"SCN_CN15_9005_CEI109", 13.8, 1,    5717.42,   -1.8,    0.7176, 2,     5717.4, -121.8,    0.7176, 3,    5717.41,  118.2,    0.7176
"SCN_CN15_9004_CEI109", 13.8, 1,    5717.39,   -1.8,    0.7176, 2,    5717.37, -121.8,   0.71759, 3,    5717.38,  118.2,   0.71759
"SCN_CN15_9002_CEI109", 13.8, 1,    5861.85,   -1.7,   0.73573, 2,    5861.83, -121.7,   0.73572, 3,    5861.85,  118.3,   0.73573
"SCN_CN15_9003_CEI109", 13.8, 1,    5861.85,   -1.7,   0.73573, 2,    5861.83, -121.7,   0.73572, 3,    5861.85,  118.3,   0.73573
"SCN_CN15_9001_CEI109", 13.8, 1,    5861.85,   -1.7,   0.73573, 2,    5861.83, -121.7,   0.73572, 3,    5861.85,  118.3,   0.73573
"SCN_CN15_9122_CEI201_ATV", 13.8, 1,    5861.85,   -1.7,   0.73573, 2,    5861.83, -121.7,   0.73572, 3,    5861.85,  118.3,   0.73573
"SCN_CN15_9241_CEI109", 13.8, 1,    5608.73,   -1.9,   0.70396, 2,    5608.71, -121.9,   0.70395, 3,    5608.73,  118.1,   0.70396
"SCN_CN15_9204_CEI109", 13.8, 1,    5608.75,   -1.9,   0.70396, 2,    5608.72, -121.9,   0.70396, 3,    5608.74,  118.1,   0.70396
"SCN_CN15_9242_CEI109", 13.8, 1,    5608.72,   -1.9,   0.70396, 2,    5608.69, -121.9,   0.70395, 3,    5608.71,  118.1,   0.70395
"SCN_CN15_9243_CEI109", 13.8, 1,     5608.7,   -1.9,   0.70395, 2,    5608.68, -121.9,   0.70395, 3,     5608.7,  118.1,   0.70395
"SCN_CN15_9244_CEI109", 13.8, 1,    5608.68,   -1.9,   0.70395, 2,    5608.66, -121.9,   0.70395, 3,    5608.68,  118.1,   0.70395
"SCN_CN15_9245_CEI109", 13.8, 1,    5608.66,   -1.9,   0.70395, 2,    5608.64, -121.9,   0.70395, 3,    5608.66,  118.1,   0.70395
"SCN_CN15_9190_CEI109", 13.8, 1,    5607.12,   -1.9,   0.70375, 2,    5607.09, -121.9,   0.70375, 3,    5607.11,  118.1,   0.70375
"SCN_CN15_9191_CEI109", 13.8, 1,    5607.09,   -1.9,   0.70375, 2,    5607.06, -121.9,   0.70375, 3,    5607.08,  118.1,   0.70375
"SCN_CN15_9166_CEI109", 13.8, 1,    5607.04,   -1.9,   0.70374, 2,    5607.01, -121.9,   0.70374, 3,    5607.03,  118.1,   0.70374
"SCN_CN15_9167_CEI109", 13.8, 1,    5607.03,   -1.9,   0.70374, 2,    5607.01, -121.9,   0.70374, 3,    5607.03,  118.1,   0.70374
"SCN_CN15_9168_CEI109", 13.8, 1,    5607.02,   -1.9,   0.70374, 2,       5607, -121.9,   0.70374, 3,    5607.01,  118.1,   0.70374
"SCN_CN15_9169_CEI109", 13.8, 1,    5607.01,   -1.9,   0.70374, 2,    5606.98, -121.9,   0.70374, 3,       5607,  118.1,   0.70374
"SCN_CN15_9183_CEI109", 13.8, 1,    5606.99,   -1.9,   0.70374, 2,    5606.96, -121.9,   0.70374, 3,    5606.98,  118.1,   0.70374
"SCN_CN15_9330_CEI109", 13.8, 1,    5568.55,   -1.9,   0.69891, 2,    5568.53, -121.9,   0.69891, 3,    5568.55,  118.1,   0.69891
"SCN_CN15_9329_CEI109", 13.8, 1,    5569.29,   -1.9,   0.69901, 2,    5569.27, -121.9,     0.699, 3,    5569.29,  118.1,   0.69901
"SCN_CN15_9328_CEI109", 13.8, 1,    5569.81,   -1.9,   0.69907, 2,    5569.78, -121.9,   0.69907, 3,     5569.8,  118.1,   0.69907
"SCN_CN15_9165_CEI068", 13.8, 1,    6063.77,   -1.5,   0.76107, 2,    6063.75, -121.5,   0.76107, 3,    6063.76,  118.5,   0.76107
"SCN_CN15_9166_CEI068", 13.8, 1,    6063.61,   -1.5,   0.76105, 2,    6063.59, -121.5,   0.76105, 3,    6063.61,  118.5,   0.76105
"SCN_CN15_9327_CEI109", 13.8, 1,     5570.7,   -1.9,   0.69918, 2,    5570.68, -121.9,   0.69918, 3,     5570.7,  118.1,   0.69918
"SCN_CN15_9399_CEI109", 13.8, 1,    5571.54,   -1.9,   0.69929, 2,    5571.51, -121.9,   0.69929, 3,    5571.53,  118.1,   0.69929
"SCN_CN15_9029_CEI160_ATV", 13.8, 1,     5571.5,   -1.9,   0.69928, 2,    5571.47, -121.9,   0.69928, 3,    5571.49,  118.1,   0.69928
"SCN_CN15_9057_CEI075", 13.8, 1,    5799.89,   -1.7,   0.72795, 2,    5799.87, -121.7,   0.72795, 3,    5799.89,  118.3,   0.72795
"SCN_CN15_9054_CEIRJ006_ATV", 13.8, 1,    5799.88,   -1.7,   0.72795, 2,    5799.86, -121.7,   0.72795, 3,    5799.87,  118.3,   0.72795
"SCN_CN15_9040_CEI77A_ATV", 13.8, 1,    5855.47,   -1.7,   0.73493, 2,    5855.44, -121.7,   0.73492, 3,    5855.46,  118.3,   0.73492
"SCN_CN15_9042_CEI77A_ATV", 13.8, 1,    5855.44,   -1.7,   0.73492, 2,    5855.41, -121.7,   0.73492, 3,    5855.43,  118.3,   0.73492
"SCN_CN15_9043_CEI77A_ATV", 13.8, 1,     5855.4,   -1.7,   0.73492, 2,    5855.38, -121.7,   0.73491, 3,     5855.4,  118.3,   0.73492
"SCN_CN15_9190_CEI77A_ATV", 13.8, 1,    5857.34,   -1.7,   0.73516, 2,    5857.31, -121.7,   0.73516, 3,    5857.33,  118.3,   0.73516
"SCN_CN15_9194_CEI77A_ATV", 13.8, 1,    5857.23,   -1.7,   0.73515, 2,    5857.21, -121.7,   0.73514, 3,    5857.23,  118.3,   0.73515
"SCN_CN15_9195_CEI77A_ATV", 13.8, 1,    5857.06,   -1.7,   0.73512, 2,    5857.03, -121.7,   0.73512, 3,    5857.05,  118.3,   0.73512
"SCN_CN15_9196_CEI77A_ATV", 13.8, 1,    5856.88,   -1.7,    0.7351, 2,    5856.86, -121.7,    0.7351, 3,    5856.88,  118.3,    0.7351
"SCN_CN15_9197_CEI77A_ATV", 13.8, 1,    5856.69,   -1.7,   0.73508, 2,    5856.67, -121.7,   0.73508, 3,    5856.69,  118.3,   0.73508
"SCN_CN15_9198_CEI77A_ATV", 13.8, 1,    5856.63,   -1.7,   0.73507, 2,    5856.61, -121.7,   0.73507, 3,    5856.63,  118.3,   0.73507
"SCN_CN15_9199_CEI77A_ATV", 13.8, 1,    5856.58,   -1.7,   0.73507, 2,    5856.56, -121.7,   0.73506, 3,    5856.58,  118.3,   0.73506
"SCN_CN15_9200_CEI77A_ATV", 13.8, 1,    5859.61,   -1.7,   0.73545, 2,    5859.59, -121.7,   0.73544, 3,    5859.61,  118.3,   0.73544
"SCN_CN15_9201_CEI77A_ATV", 13.8, 1,    5859.65,   -1.7,   0.73545, 2,    5859.62, -121.7,   0.73545, 3,    5859.64,  118.3,   0.73545
"SCN_CN15_9039_CEI076", 13.8, 1,    6164.57,   -1.4,   0.77372, 2,    6164.55, -121.4,   0.77372, 3,    6164.56,  118.6,   0.77372
"SCN_CN15_9041_CEI076", 13.8, 1,    6164.57,   -1.4,   0.77372, 2,    6164.55, -121.4,   0.77372, 3,    6164.56,  118.6,   0.77372
"SCN_CN15_9042_CEI076", 13.8, 1,    6164.57,   -1.4,   0.77372, 2,    6164.55, -121.4,   0.77372, 3,    6164.56,  118.6,   0.77372
"SCN_CN15_9044_CEI076", 13.8, 1,    6164.57,   -1.4,   0.77372, 2,    6164.55, -121.4,   0.77372, 3,    6164.56,  118.6,   0.77372
"SCN_CN15_9045_CEI076", 13.8, 1,    6164.57,   -1.4,   0.77372, 2,    6164.55, -121.4,   0.77372, 3,    6164.56,  118.6,   0.77372
"SCN_CN15_9057_CEI068", 13.8, 1,    6875.75,   -0.8,   0.86298, 2,    6875.73, -120.8,   0.86298, 3,    6875.74,  119.2,   0.86298
"SCN_CN15_9058_CEI068", 13.8, 1,    6875.74,   -0.8,   0.86298, 2,    6875.73, -120.8,   0.86298, 3,    6875.74,  119.2,   0.86298
"SCN_CN15_9236_CEI068", 13.8, 1,    6875.74,   -0.8,   0.86298, 2,    6875.72, -120.8,   0.86298, 3,    6875.73,  119.2,   0.86298
...
"SCN_CN15_CEI_FL_MT_37442", 13.8, 1,    5958.84,   -1.6,    0.7479, 2,    5958.82, -121.6,    0.7479, 3,    5958.84,  118.4,    0.7479
"SCN_CN15_9088_CEI072", 13.8, 1,    5958.84,   -1.6,    0.7479, 2,    5958.82, -121.6,    0.7479, 3,    5958.84,  118.4,    0.7479
"SCN_CN15_9089_CEI072", 13.8, 1,     5957.2,   -1.6,   0.74769, 2,    5957.18, -121.6,   0.74769, 3,     5957.2,  118.4,   0.74769
"SCN_CN15_9062_CEI072", 13.8, 1,    5960.99,   -1.6,   0.74817, 2,    5960.96, -121.6,   0.74817, 3,    5960.98,  118.4,   0.74817
"SCN_CN15_9061_CEI071", 13.8, 1,    6029.09,   -1.5,   0.75672, 2,    6029.07, -121.5,   0.75671, 3,    6029.09,  118.5,   0.75672
"SCN_CN15_9072_CEI071", 13.8, 1,    6029.03,   -1.5,   0.75671, 2,    6029.01, -121.5,   0.75671, 3,    6029.03,  118.5,   0.75671
"SCN_CN15_9073_CEI071", 13.8, 1,    6028.98,   -1.5,    0.7567, 2,    6028.96, -121.5,    0.7567, 3,    6028.98,  118.5,    0.7567
"SCN_CN15_9075_CEI071", 13.8, 1,    6028.93,   -1.5,    0.7567, 2,     6028.9, -121.5,   0.75669, 3,    6028.92,  118.5,    0.7567
"SCN_CN15_9078_CEI071", 13.8, 1,    6028.88,   -1.5,   0.75669, 2,    6028.85, -121.5,   0.75669, 3,    6028.87,  118.5,   0.75669
"SCN_CN15_9079_CEI071", 13.8, 1,    6028.82,   -1.5,   0.75668, 2,     6028.8, -121.5,   0.75668, 3,    6028.81,  118.5,   0.75668
"SCN_CN15_9080_CEI071", 13.8, 1,    6028.78,   -1.5,   0.75668, 2,    6028.76, -121.5,   0.75668, 3,    6028.78,  118.5,   0.75668
"SCN_CN15_9081_CEI071", 13.8, 1,    6028.73,   -1.5,   0.75667, 2,    6028.71, -121.5,   0.75667, 3,    6028.72,  118.5,   0.75667
"SCN_CN15_9082_CEI071", 13.8, 1,    6028.67,   -1.5,   0.75666, 2,    6028.65, -121.5,   0.75666, 3,    6028.67,  118.5,   0.75666
"SCN_CN15_9083_CEI071", 13.8, 1,    6028.62,   -1.5,   0.75666, 2,     6028.6, -121.5,   0.75666, 3,    6028.62,  118.5,   0.75666
"SCN_CN15_9084_CEI071", 13.8, 1,    6028.57,   -1.5,   0.75665, 2,    6028.55, -121.5,   0.75665, 3,    6028.56,  118.5,   0.75665
"SCN_CN15_9145_CEI220_ATV", 13.8, 1,    5764.38,   -1.7,   0.72349, 2,    5764.36, -121.7,   0.72349, 3,    5764.37,  118.3,   0.72349
"SCN_CN15_9146_CEI220_ATV", 13.8, 1,    5764.27,   -1.7,   0.72348, 2,    5764.25, -121.7,   0.72348, 3,    5764.27,  118.3,   0.72348
"SCN_CN15_9004_CEI220_ATV", 13.8, 1,    5861.58,   -1.7,   0.73569, 2,    5861.56, -121.7,   0.73569, 3,    5861.57,  118.3,   0.73569
"SCN_CN15_9005_CEI220_ATV", 13.8, 1,    5861.57,   -1.7,   0.73569, 2,    5861.55, -121.7,   0.73569, 3,    5861.56,  118.3,   0.73569
"SCN_CN15_9088_CEI201_ATV", 13.8, 1,    5853.21,   -1.7,   0.73464, 2,    5853.18, -121.7,   0.73464, 3,     5853.2,  118.3,   0.73464
"SCN_CN15_9089_CEI201_ATV", 13.8, 1,    5853.23,   -1.7,   0.73464, 2,     5853.2, -121.7,   0.73464, 3,    5853.22,  118.3,   0.73464
"SCN_CN15_9016_CEIRJ003", 13.8, 1,    5853.97,   -1.7,   0.73474, 2,    5853.95, -121.7,   0.73473, 3,    5853.96,  118.3,   0.73474
"SCN_CN15_9089_CEI201_ATV_S", 13.8, 1,    5853.23,   -1.7,   0.73464, 2,     5853.2, -121.7,   0.73464, 3,    5853.22,  118.3,   0.73464
"SCN_CN15_9123_CEI69B", 13.8, 1,    5854.89,   -1.7,   0.73485, 2,    5854.86, -121.7,   0.73485, 3,    5854.88,  118.3,   0.73485
"SCN_CN15_9121_CEI69B", 13.8, 1,    5853.98,   -1.7,   0.73474, 2,    5853.96, -121.7,   0.73474, 3,    5853.98,  118.3,   0.73474
"SCN_CN15_9119_CEI69B", 13.8, 1,    5852.88,   -1.7,    0.7346, 2,    5852.85, -121.7,    0.7346, 3,    5852.87,  118.3,    0.7346
"SCN_CN15_9276_CEI109", 13.8, 1,    5662.84,   -1.9,   0.71075, 2,    5662.82, -121.9,   0.71075, 3,    5662.84,  118.1,   0.71075
"SCN_CN15_9277_CEI109", 13.8, 1,     5659.9,   -1.9,   0.71038, 2,    5659.87, -121.9,   0.71038, 3,    5659.89,  118.1,   0.71038
"SCN_CN15_9118_CEI69B", 13.8, 1,    5851.83,   -1.7,   0.73447, 2,    5851.81, -121.7,   0.73447, 3,    5851.83,  118.3,   0.73447
"SCN_CN15_9114_CEI230_ATV", 13.8, 1,    5849.22,   -1.7,   0.73414, 2,     5849.2, -121.7,   0.73414, 3,    5849.22,  118.3,   0.73414
"SCN_CN15_9113_CEI230_ATV", 13.8, 1,    5847.32,   -1.7,    0.7339, 2,     5847.3, -121.7,    0.7339, 3,    5847.32,  118.3,    0.7339
"SCN_CN15_9112_CEI230_ATV", 13.8, 1,    5843.75,   -1.7,   0.73345, 2,    5843.72, -121.7,   0.73345, 3,    5843.74,  118.3,   0.73345
"SCN_CN15_9111_CEI230_ATV_S", 13.8, 1,    5842.94,   -1.7,   0.73335, 2,    5842.91, -121.7,   0.73335, 3,    5842.93,  118.3,   0.73335
"SCN_CN15_9110_CEI230_ATV", 13.8, 1,    5842.91,   -1.7,   0.73335, 2,    5842.88, -121.7,   0.73335, 3,     5842.9,  118.3,   0.73335
"SCN_CN15_9111_CEI230_ATV", 13.8, 1,    5842.94,   -1.7,   0.73335, 2,    5842.91, -121.7,   0.73335, 3,    5842.93,  118.3,   0.73335
"SCN_CN15_9109_CEI230_ATV", 13.8, 1,    5842.88,   -1.7,   0.73335, 2,    5842.85, -121.7,   0.73334, 3,    5842.87,  118.3,   0.73334
"SCN_CN15_9108_CEI230_ATV", 13.8, 1,    5842.85,   -1.7,   0.73334, 2,    5842.83, -121.7,   0.73334, 3,    5842.85,  118.3,   0.73334
"SCN_CN15_9107_CEI230_ATV", 13.8, 1,    5842.84,   -1.7,   0.73334, 2,    5842.81, -121.7,   0.73334, 3,    5842.83,  118.3,   0.73334
"SCN_CN15_9106_CEI230_ATV", 13.8, 1,    5842.82,   -1.7,   0.73334, 2,    5842.79, -121.7,   0.73333, 3,    5842.81,  118.3,   0.73334
"SCN_CN15_9278_CEI109", 13.8, 1,    5657.27,   -1.9,   0.71005, 2,    5657.25, -121.9,   0.71005, 3,    5657.27,  118.1,   0.71005
"SCN_CN15_9104_CEI230_ATV", 13.8, 1,     5842.8,   -1.7,   0.73334, 2,    5842.78, -121.7,   0.73333, 3,     5842.8,  118.3,   0.73333
"SCN_CN15_9105_CEI230_ATV", 13.8, 1,    5842.79,   -1.7,   0.73333, 2,    5842.76, -121.7,   0.73333, 3,    5842.78,  118.3,   0.73333
"SCN_CN15_9103_CEI230_ATV", 13.8, 1,    5842.77,   -1.7,   0.73333, 2,    5842.75, -121.7,   0.73333, 3,    5842.77,  118.3,   0.73333
"SCN_CN15_9102_CEI230_ATV", 13.8, 1,    5842.76,   -1.7,   0.73333, 2,    5842.73, -121.7,   0.73333, 3,    5842.75,  118.3,   0.73333
"SCN_CN15_9100_CEI230_ATV", 13.8, 1,    5842.74,   -1.7,   0.73333, 2,    5842.71, -121.7,   0.73332, 3,    5842.73,  118.3,   0.73333
"SCN_CN15_9099_CEI230_ATV", 13.8, 1,    5842.73,   -1.7,   0.73333, 2,     5842.7, -121.7,   0.73332, 3,    5842.72,  118.3,   0.73332
"SCN_CN15_9098_CEI230_ATV", 13.8, 1,    5842.71,   -1.7,   0.73332, 2,    5842.69, -121.7,   0.73332, 3,    5842.71,  118.3,   0.73332
"SCN_CN15_9097_CEI230_ATV", 13.8, 1,     5842.7,   -1.7,   0.73332, 2,    5842.67, -121.7,   0.73332, 3,    5842.69,  118.3,   0.73332
"SCN_CN15_9096_CEI230_ATV", 13.8, 1,    5842.68,   -1.7,   0.73332, 2,    5842.66, -121.7,   0.73332, 3,    5842.68,  118.3,   0.73332
"SCN_CN15_9094_CEI230_ATV", 13.8, 1,    5842.67,   -1.7,   0.73332, 2,    5842.65, -121.7,   0.73332, 3,    5842.66,  118.3,   0.73332
"SCN_CN15_9281_CEI109", 13.8, 1,    5655.34,   -1.9,   0.70981, 2,    5655.32, -121.9,    0.7098, 3,    5655.33,  118.1,   0.70981
"SCN_CN15_9095_CEI230_ATV", 13.8, 1,    5842.67,   -1.7,   0.73332, 2,    5842.64, -121.7,   0.73332, 3,    5842.66,  118.3,   0.73332
"SCN_CN15_9120_CEI230_ATV", 13.8, 1,    5839.25,   -1.7,   0.73289, 2,    5839.22, -121.7,   0.73289, 3,    5839.24,  118.3,   0.73289
"SCN_CN15_9115_CEI230_ATV", 13.8, 1,    5839.19,   -1.7,   0.73288, 2,    5839.16, -121.7,   0.73288, 3,    5839.18,  118.3,   0.73288
"SCN_CN15_9119_CEI230_ATV", 13.8, 1,    5835.65,   -1.7,   0.73244, 2,    5835.63, -121.7,   0.73244, 3,    5835.65,  118.3,   0.73244
"SCN_CN15_9331_CEI109", 13.8, 1,     5567.7,   -2.0,   0.69881, 2,    5567.68, -122.0,    0.6988, 3,     5567.7,  118.0,   0.69881
"SCN_CN15_9332_CEI109", 13.8, 1,    5567.22,   -2.0,   0.69875, 2,    5567.19, -122.0,   0.69874, 3,    5567.21,  118.0,   0.69875
"SCN_CN15_9118_CEI230_ATV", 13.8, 1,    5832.11,   -1.7,   0.73199, 2,    5832.09, -121.7,   0.73199, 3,    5832.11,  118.3,   0.73199
"SCN_CN15_9117_CEI230_ATV", 13.8, 1,    5828.44,   -1.7,   0.73153, 2,    5828.41, -121.7,   0.73153, 3,    5828.43,  118.3,   0.73153
"SCN_CN15_9116_CEI230_ATV", 13.8, 1,    5824.95,   -1.7,    0.7311, 2,    5824.93, -121.7,   0.73109, 3,    5824.94,  118.3,   0.73109
"SCN_CN15_9014_CEIRJ003", 13.8, 1,    5821.61,   -1.7,   0.73068, 2,    5821.58, -121.7,   0.73067, 3,     5821.6,  118.3,   0.73067
"SCN_CN15_9002_CEI075", 13.8, 1,     5820.2,   -1.7,    0.7305, 2,    5820.17, -121.7,    0.7305, 3,    5820.19,  118.3,    0.7305
"SCN_CN15_9003_CEI075", 13.8, 1,    5818.71,   -1.7,   0.73031, 2,    5818.68, -121.7,   0.73031, 3,     5818.7,  118.3,   0.73031
"SCN_CN15_9282_CEI109", 13.8, 1,    5653.51,   -1.9,   0.70958, 2,    5653.48, -121.9,   0.70957, 3,     5653.5,  118.1,   0.70958
"SCN_CN15_9004_CEI075", 13.8, 1,    5817.05,   -1.7,    0.7301, 2,    5817.02, -121.7,    0.7301, 3,    5817.04,  118.3,    0.7301
"SCN_CN15_9052_CEIRJ006_ATV", 13.8, 1,    5818.68,   -1.7,   0.73031, 2,    5818.65, -121.7,    0.7303, 3,    5818.67,  118.3,   0.73031
"SCN_CN15_9005_CEI075", 13.8, 1,    5815.32,   -1.7,   0.72989, 2,    5815.29, -121.7,   0.72988, 3,    5815.31,  118.3,   0.72989
"SCN_CN15_9006_CEI075", 13.8, 1,    5813.25,   -1.7,   0.72963, 2,    5813.22, -121.7,   0.72962, 3,    5813.24,  118.3,   0.72963
"SCN_CN15_9007_CEI075", 13.8, 1,    5811.67,   -1.7,   0.72943, 2,    5811.64, -121.7,   0.72942, 3,    5811.66,  118.3,   0.72943
"SCN_CN15_9008_CEI075", 13.8, 1,    5809.69,   -1.7,   0.72918, 2,    5809.67, -121.7,   0.72918, 3,    5809.68,  118.3,   0.72918
"SCN_CN15_9009_CEI075", 13.8, 1,    5807.74,   -1.7,   0.72894, 2,    5807.72, -121.7,   0.72893, 3,    5807.73,  118.3,   0.72893
"SCN_CN15_9169_CEI230_ATV", 13.8, 1,    5807.73,   -1.7,   0.72893, 2,     5807.7, -121.7,   0.72893, 3,    5807.72,  118.3,   0.72893
"SCN_CN15_9010_CEI075", 13.8, 1,    5807.45,   -1.7,    0.7289, 2,    5807.42, -121.7,    0.7289, 3,    5807.44,  118.3,    0.7289
"SCN_CN15_9011_CEI075", 13.8, 1,    5807.14,   -1.7,   0.72886, 2,    5807.11, -121.7,   0.72886, 3,    5807.13,  118.3,   0.72886
"SCN_CN15_9012_CEI075", 13.8, 1,    5806.83,   -1.7,   0.72882, 2,    5806.81, -121.7,   0.72882, 3,    5806.82,  118.3,   0.72882
"SCN_CN15_9283_CEI109", 13.8, 1,    5650.73,   -1.9,   0.70923, 2,     5650.7, -121.9,   0.70922, 3,    5650.72,  118.1,   0.70923
"SCN_CN15_9013_CEI075", 13.8, 1,     5806.4,   -1.7,   0.72877, 2,    5806.38, -121.7,   0.72876, 3,     5806.4,  118.3,   0.72877
"SCN_CN15_9014_CEI075", 13.8, 1,       5806,   -1.7,   0.72872, 2,    5805.97, -121.7,   0.72871, 3,    5805.99,  118.3,   0.72871
"SCN_CN15_9015_CEI075", 13.8, 1,    5805.59,   -1.7,   0.72867, 2,    5805.57, -121.7,   0.72866, 3,    5805.59,  118.3,   0.72866
"SCN_CN15_9016_CEI075", 13.8, 1,    5805.18,   -1.7,   0.72861, 2,    5805.15, -121.7,   0.72861, 3,    5805.17,  118.3,   0.72861
"SCN_CN15_9017_CEI075", 13.8, 1,    5804.79,   -1.7,   0.72856, 2,    5804.76, -121.7,   0.72856, 3,    5804.78,  118.3,   0.72856
"SCN_CN15_9018_CEI075", 13.8, 1,    5804.37,   -1.7,   0.72851, 2,    5804.35, -121.7,   0.72851, 3,    5804.36,  118.3,   0.72851
"SCN_CN15_9019_CEI075", 13.8, 1,    5804.16,   -1.7,   0.72849, 2,    5804.13, -121.7,   0.72848, 3,    5804.15,  118.3,   0.72848
"SCN_CN15_9020_CEI075", 13.8, 1,    5803.95,   -1.7,   0.72846, 2,    5803.93, -121.7,   0.72846, 3,    5803.94,  118.3,   0.72846
"SCN_CN15_9022_CEI075", 13.8, 1,    5803.58,   -1.7,   0.72841, 2,    5803.55, -121.7,   0.72841, 3,    5803.57,  118.3,   0.72841
"SCN_CN15_9023_CEI075", 13.8, 1,    5803.26,   -1.7,   0.72837, 2,    5803.23, -121.7,   0.72837, 3,    5803.25,  118.3,   0.72837
"SCN_CN15_9284_CEI109", 13.8, 1,    5648.56,   -1.9,   0.70896, 2,    5648.53, -121.9,   0.70895, 3,    5648.55,  118.1,   0.70896
"SCN_CN15_9024_CEI075", 13.8, 1,    5802.85,   -1.7,   0.72832, 2,    5802.83, -121.7,   0.72832, 3,    5802.84,  118.3,   0.72832
"SCN_CN15_9025_CEI075", 13.8, 1,    5802.49,   -1.7,   0.72828, 2,    5802.46, -121.7,   0.72827, 3,    5802.48,  118.3,   0.72827
"SCN_CN15_9072_CEI230_ATV", 13.8, 1,    5802.46,   -1.7,   0.72827, 2,    5802.43, -121.7,   0.72827, 3,    5802.45,  118.3,   0.72827
"SCN_CN15_9028_CEI075", 13.8, 1,    5801.65,   -1.7,   0.72817, 2,    5801.62, -121.7,   0.72817, 3,    5801.64,  118.3,   0.72817
"SCN_CN15_9029_CEI075", 13.8, 1,    5801.46,   -1.7,   0.72815, 2,    5801.43, -121.7,   0.72814, 3,    5801.45,  118.3,   0.72815
"SCN_CN15_9027_CEI075", 13.8, 1,    5801.84,   -1.7,   0.72819, 2,    5801.81, -121.7,   0.72819, 3,    5801.83,  118.3,   0.72819
"SCN_CN15_9026_CEI075", 13.8, 1,    5802.16,   -1.7,   0.72823, 2,    5802.13, -121.7,   0.72823, 3,    5802.15,  118.3,   0.72823
"SCN_CN15_9030_CEI075", 13.8, 1,    5801.38,   -1.7,   0.72814, 2,    5801.35, -121.7,   0.72813, 3,    5801.37,  118.3,   0.72814
"SCN_CN15_9074_CEI230_ATV", 13.8, 1,    5801.14,   -1.7,   0.72811, 2,    5801.11, -121.7,    0.7281, 3,    5801.13,  118.3,   0.72811
"SCN_CN15_9075_CEI230_ATV", 13.8, 1,    5800.99,   -1.7,   0.72809, 2,    5800.97, -121.7,   0.72808, 3,    5800.98,  118.3,   0.72809
"SCN_CN15_9292_CEI109_S", 13.8, 1,    5645.33,   -1.9,   0.70855, 2,     5645.3, -121.9,   0.70855, 3,    5645.32,  118.1,   0.70855
"SCN_CN15_9076_CEI230_ATV_S", 13.8, 1,     5800.9,   -1.7,   0.72808, 2,    5800.87, -121.7,   0.72807, 3,    5800.89,  118.3,   0.72807
"SCN_CN15_9076_CEI230_ATV", 13.8, 1,     5800.9,   -1.7,   0.72808, 2,    5800.87, -121.7,   0.72807, 3,    5800.89,  118.3,   0.72807
"SCN_CN15_9079_CEI230_ATV", 13.8, 1,     5800.8,   -1.7,   0.72806, 2,    5800.77, -121.7,   0.72806, 3,    5800.79,  118.3,   0.72806
"SCN_CN15_9078_CEI230_ATV", 13.8, 1,    5800.69,   -1.7,   0.72805, 2,    5800.66, -121.7,   0.72805, 3,    5800.68,  118.3,   0.72805
"SCN_CN15_9077_CEI230_ATV", 13.8, 1,    5800.78,   -1.7,   0.72806, 2,    5800.75, -121.7,   0.72806, 3,    5800.77,  118.3,   0.72806
"SCN_CN15_9080_CEI230_ATV", 13.8, 1,    5800.65,   -1.7,   0.72805, 2,    5800.63, -121.7,   0.72804, 3,    5800.65,  118.3,   0.72804
"SCN_CN15_9081_CEI230_ATV", 13.8, 1,    5800.55,   -1.7,   0.72803, 2,    5800.52, -121.7,   0.72803, 3,    5800.54,  118.3,   0.72803
"SCN_CN15_9082_CEI230_ATV", 13.8, 1,    5800.55,   -1.7,   0.72803, 2,    5800.52, -121.7,   0.72803, 3,    5800.54,  118.3,   0.72803
"SCN_CN15_9084_CEI230_ATV", 13.8, 1,    5800.49,   -1.7,   0.72803, 2,    5800.47, -121.7,   0.72802, 3,    5800.49,  118.3,   0.72802
"SCN_CN15_9085_CEI230_ATV", 13.8, 1,    5800.44,   -1.7,   0.72802, 2,    5800.41, -121.7,   0.72802, 3,    5800.43,  118.3,   0.72802
"SCN_CN15_9086_CEI230_ATV", 13.8, 1,    5800.38,   -1.7,   0.72801, 2,    5800.35, -121.7,   0.72801, 3,    5800.37,  118.3,   0.72801
"SCN_CN15_9292_CEI109", 13.8, 1,    5645.33,   -1.9,   0.70855, 2,     5645.3, -121.9,   0.70855, 3,    5645.32,  118.1,   0.70855
"SCN_CN15_9423_CEI109", 13.8, 1,    5645.23,   -1.9,   0.70854, 2,     5645.2, -121.9,   0.70853, 3,    5645.22,  118.1,   0.70854
"SCN_CN15_9087_CEI230_ATV", 13.8, 1,    5800.34,   -1.7,   0.72801, 2,    5800.31, -121.7,     0.728, 3,    5800.33,  118.3,     0.728
"SCN_CN15_9083_CEI230_ATV", 13.8, 1,    5800.51,   -1.7,   0.72803, 2,    5800.48, -121.7,   0.72802, 3,     5800.5,  118.3,   0.72803
"SCN_CN15_9088_CEI230_ATV", 13.8, 1,    5800.47,   -1.7,   0.72802, 2,    5800.45, -121.7,   0.72802, 3,    5800.46,  118.3,   0.72802
"SCN_CN15_9090_CEI230_ATV", 13.8, 1,    5800.44,   -1.7,   0.72802, 2,    5800.41, -121.7,   0.72802, 3,    5800.43,  118.3,   0.72802
"SCN_CN15_9084_CEI148_ATV", 13.8, 1,    5546.82,   -2.0,   0.69619, 2,    5546.79, -122.0,   0.69618, 3,    5546.81,  118.0,   0.69619
"SCN_CN15_9083_CEI148_ATV", 13.8, 1,    5547.43,   -2.0,   0.69626, 2,    5547.41, -122.0,   0.69626, 3,    5547.43,  118.0,   0.69626
"SCN_CN15_9086_CEI148_ATV", 13.8, 1,    5546.32,   -2.0,   0.69612, 2,     5546.3, -122.0,   0.69612, 3,    5546.32,  118.0,   0.69612
"SCN_CN15_9100_CEI201_ATV", 13.8, 1,    5838.02,   -1.7,   0.73274, 2,       5838, -121.7,   0.73273, 3,    5838.02,  118.3,   0.73273
"SCN_CN15_9102_CEI201_ATV", 13.8, 1,    5838.06,   -1.7,   0.73274, 2,    5838.03, -121.7,   0.73274, 3,    5838.05,  118.3,   0.73274
"SCN_CN15_9087_CEI148_ATV", 13.8, 1,    5545.53,   -2.0,   0.69602, 2,     5545.5, -122.0,   0.69602, 3,    5545.52,  118.0,   0.69602
"SCN_CN15_9088_CEI148_ATV", 13.8, 1,    5545.49,   -2.0,   0.69602, 2,    5545.46, -122.0,   0.69602, 3,    5545.48,  118.0,   0.69602
"SCN_CN15_9090_CEI148_ATV", 13.8, 1,    5545.37,   -2.0,   0.69601, 2,    5545.35, -122.0,     0.696, 3,    5545.37,  118.0,     0.696
"SCN_CN15_9424_CEI109", 13.8, 1,    5645.07,   -1.9,   0.70852, 2,    5645.05, -121.9,   0.70851, 3,    5645.06,  118.1,   0.70852
"SCN_CN15_9034_CEI148A_ATV", 13.8, 1,    5545.01,   -2.0,   0.69596, 2,    5544.99, -122.0,   0.69596, 3,    5545.01,  118.0,   0.69596
"SCN_CN15_9033_CEI148A_ATV", 13.8, 1,    5544.42,   -2.0,   0.69589, 2,    5544.39, -122.0,   0.69588, 3,    5544.41,  118.0,   0.69588
"SCN_CN15_9035_CEI148A_ATV", 13.8, 1,     5544.4,   -2.0,   0.69588, 2,    5544.37, -122.0,   0.69588, 3,    5544.39,  118.0,   0.69588
"SCN_CN15_9031_CEI148A_ATV", 13.8, 1,    5543.93,   -2.0,   0.69582, 2,     5543.9, -122.0,   0.69582, 3,    5543.92,  118.0,   0.69582
"SCN_CN15_9030_CEI148A_ATV", 13.8, 1,    5543.36,   -2.0,   0.69575, 2,    5543.34, -122.0,   0.69575, 3,    5543.36,  118.0,   0.69575
"SCN_CN15_9029_CEI148A_ATV_S", 13.8, 1,    5543.29,   -2.0,   0.69574, 2,    5543.27, -122.0,   0.69574, 3,    5543.28,  118.0,   0.69574
"SCN_CN15_9028_CEI148A_ATV", 13.8, 1,    5543.26,   -2.0,   0.69574, 2,    5543.24, -122.0,   0.69574, 3,    5543.26,  118.0,   0.69574
"SCN_CN15_9029_CEI148A_ATV", 13.8, 1,    5543.29,   -2.0,   0.69574, 2,    5543.27, -122.0,   0.69574, 3,    5543.28,  118.0,   0.69574
"SCN_CN15_9032_CEI148A_ATV", 13.8, 1,    5543.25,   -2.0,   0.69574, 2,    5543.23, -122.0,   0.69574, 3,    5543.25,  118.0,   0.69574
"SCN_CN15_9078_CEI201_ATV", 13.8, 1,    5543.22,   -2.0,   0.69573, 2,    5543.19, -122.0,   0.69573, 3,    5543.21,  118.0,   0.69573
"SCN_CN15_9075_CEI201_ATV", 13.8, 1,    5543.19,   -2.0,   0.69573, 2,    5543.16, -122.0,   0.69573, 3,    5543.18,  118.0,   0.69573
"SCN_CN15_9425_CEI109", 13.8, 1,    5644.93,   -1.9,    0.7085, 2,     5644.9, -121.9,    0.7085, 3,    5644.92,  118.1,    0.7085
"SCN_CN15_9025_CEI148A_ATV", 13.8, 1,    5542.92,   -2.0,    0.6957, 2,     5542.9, -122.0,   0.69569, 3,    5542.92,  118.0,    0.6957
"SCN_CN15_9023_CEI148A_ATV_S", 13.8, 1,    5542.08,   -2.0,   0.69559, 2,    5542.05, -122.0,   0.69559, 3,    5542.07,  118.0,   0.69559
"SCN_CN15_9028_CEI69A", 13.8, 1,    5542.05,   -2.0,   0.69559, 2,    5542.03, -122.0,   0.69559, 3,    5542.05,  118.0,   0.69559
"SCN_CN15_9023_CEI148A_ATV", 13.8, 1,    5542.08,   -2.0,   0.69559, 2,    5542.05, -122.0,   0.69559, 3,    5542.07,  118.0,   0.69559
"SCN_CN15_9022_CEI148A_ATV", 13.8, 1,    5542.02,   -2.0,   0.69558, 2,    5541.99, -122.0,   0.69558, 3,    5542.01,  118.0,   0.69558
"SCN_CN15_9021_CEI148A_ATV", 13.8, 1,    5541.96,   -2.0,   0.69558, 2,    5541.93, -122.0,   0.69557, 3,    5541.95,  118.0,   0.69558
"SCN_CN15_9020_CEI148A_ATV_S", 13.8, 1,    5541.92,   -2.0,   0.69557, 2,     5541.9, -122.0,   0.69557, 3,    5541.92,  118.0,   0.69557
"SCN_CN15_9020_CEI148A_ATV", 13.8, 1,    5541.92,   -2.0,   0.69557, 2,     5541.9, -122.0,   0.69557, 3,    5541.92,  118.0,   0.69557
"SCN_CN15_9019_CEI148A_ATV", 13.8, 1,    5541.91,   -2.0,   0.69557, 2,    5541.88, -122.0,   0.69557, 3,     5541.9,  118.0,   0.69557
"SCN_CN15_9001_CEI148A_ATV", 13.8, 1,    5538.75,   -2.0,   0.69517, 2,    5538.72, -122.0,   0.69517, 3,    5538.74,  118.0,   0.69517
"SCN_CN15_9002_CEI148A_ATV", 13.8, 1,     5538.8,   -2.0,   0.69518, 2,    5538.78, -122.0,   0.69518, 3,     5538.8,  118.0,   0.69518
"SCN_CN15_9003_CEI148A_ATV", 13.8, 1,    5538.83,   -2.0,   0.69518, 2,    5538.81, -122.0,   0.69518, 3,    5538.83,  118.0,   0.69518
"SCN_CN15_9005_CEI148A_ATV", 13.8, 1,    5538.86,   -2.0,   0.69519, 2,    5538.84, -122.0,   0.69518, 3,    5538.86,  118.0,   0.69519
"SCN_CN15_9426_CEI109", 13.8, 1,    5644.81,   -1.9,   0.70848, 2,    5644.78, -121.9,   0.70848, 3,     5644.8,  118.1,   0.70848
"SCN_CN15_9004_CEI148A_ATV", 13.8, 1,     5538.9,   -2.0,   0.69519, 2,    5538.87, -122.0,   0.69519, 3,    5538.89,  118.0,   0.69519
"SCN_CN15_9143_CEI220_ATV", 13.8, 1,    5764.53,   -1.7,   0.72351, 2,    5764.51, -121.7,   0.72351, 3,    5764.52,  118.3,   0.72351
"SCN_CN15_9144_CEI220_ATV", 13.8, 1,    5764.45,   -1.7,    0.7235, 2,    5764.43, -121.7,    0.7235, 3,    5764.45,  118.3,    0.7235
"SCN_CN15_9006_CEI148A_ATV", 13.8, 1,    5538.97,   -2.0,    0.6952, 2,    5538.94, -122.0,    0.6952, 3,    5538.96,  118.0,    0.6952
"SCN_CN15_9007_CEI148A_ATV", 13.8, 1,    5539.04,   -2.0,   0.69521, 2,    5539.02, -122.0,   0.69521, 3,    5539.04,  118.0,   0.69521
"SCN_CN15_9008_CEI148A_ATV", 13.8, 1,    5539.17,   -2.0,   0.69523, 2,    5539.15, -122.0,   0.69522, 3,    5539.17,  118.0,   0.69523
"SCN_CN15_9010_CEI148A_ATV", 13.8, 1,    5539.39,   -2.0,   0.69525, 2,    5539.36, -122.0,   0.69525, 3,    5539.38,  118.0,   0.69525
"SCN_CN15_9009_CEI148A_ATV", 13.8, 1,    5539.17,   -2.0,   0.69523, 2,    5539.14, -122.0,   0.69522, 3,    5539.16,  118.0,   0.69523
"SCN_CN15_9011_CEI148A_ATV", 13.8, 1,    5539.51,   -2.0,   0.69527, 2,    5539.49, -122.0,   0.69527, 3,    5539.51,  118.0,   0.69527
"SCN_CN15_9012_CEI148A_ATV", 13.8, 1,    5539.63,   -2.0,   0.69528, 2,    5539.61, -122.0,   0.69528, 3,    5539.63,  118.0,   0.69528
"SCN_CN15_9013_CEI148A_ATV", 13.8, 1,    5539.84,   -2.0,   0.69531, 2,    5539.81, -122.0,   0.69531, 3,    5539.83,  118.0,   0.69531
"SCN_CN15_9014_CEI148A_ATV", 13.8, 1,     5540.1,   -2.0,   0.69534, 2,    5540.07, -122.0,   0.69534, 3,    5540.09,  118.0,   0.69534
"SCN_CN15_9015_CEI148A_ATV", 13.8, 1,    5540.37,   -2.0,   0.69538, 2,    5540.35, -122.0,   0.69537, 3,    5540.37,  118.0,   0.69538
"SCN_CN15_9427_CEI109", 13.8, 1,    5644.66,   -1.9,   0.70847, 2,    5644.64, -121.9,   0.70846, 3,    5644.66,  118.1,   0.70847
"SCN_CN15_9016_CEI148A_ATV", 13.8, 1,    5540.64,   -2.0,   0.69541, 2,    5540.62, -122.0,   0.69541, 3,    5540.64,  118.0,   0.69541
"SCN_CN15_9017_CEI148A_ATV", 13.8, 1,    5540.76,   -2.0,   0.69543, 2,    5540.74, -122.0,   0.69542, 3,    5540.76,  118.0,   0.69543
"SCN_CN15_9018_CEI148A_ATV", 13.8, 1,    5540.92,   -2.0,   0.69545, 2,     5540.9, -122.0,   0.69544, 3,    5540.92,  118.0,   0.69545
"SCN_CN15_9020_CEI69A", 13.8, 1,    5541.24,   -2.0,   0.69549, 2,    5541.22, -122.0,   0.69548, 3,    5541.24,  118.0,   0.69549
"SCN_CN15_9018_CEI148A_ATV_S", 13.8, 1,    5540.92,   -2.0,   0.69545, 2,     5540.9, -122.0,   0.69544, 3,    5540.92,  118.0,   0.69545
"SCN_CN15_9019_CEI69A", 13.8, 1,    5541.16,   -2.0,   0.69548, 2,    5541.13, -122.0,   0.69547, 3,    5541.15,  118.0,   0.69548
"SCN_CN15_9018_CEI69A", 13.8, 1,    5541.08,   -2.0,   0.69547, 2,    5541.06, -122.0,   0.69546, 3,    5541.08,  118.0,   0.69547
"SCN_CN15_9017_CEI69A", 13.8, 1,    5541.01,   -2.0,   0.69546, 2,    5540.98, -122.0,   0.69545, 3,       5541,  118.0,   0.69546
"SCN_CN15_9016_CEI69A", 13.8, 1,    5540.99,   -2.0,   0.69546, 2,    5540.97, -122.0,   0.69545, 3,    5540.99,  118.0,   0.69545
"SCN_CN15_9015_CEI69A", 13.8, 1,    5540.99,   -2.0,   0.69546, 2,    5540.97, -122.0,   0.69545, 3,    5540.99,  118.0,   0.69545
"SCN_CN15_9428_CEI109", 13.8, 1,    5644.51,   -1.9,   0.70845, 2,    5644.48, -121.9,   0.70844, 3,     5644.5,  118.1,   0.70845
"SCN_CN15_9012_CEI69A_S", 13.8, 1,    5540.96,   -2.0,   0.69545, 2,    5540.93, -122.0,   0.69545, 3,    5540.95,  118.0,   0.69545
"SCN_CN15_9012_CEI69A", 13.8, 1,    5540.96,   -2.0,   0.69545, 2,    5540.93, -122.0,   0.69545, 3,    5540.95,  118.0,   0.69545
"SCN_CN15_9013_CEI69A", 13.8, 1,    5540.94,   -2.0,   0.69545, 2,    5540.91, -122.0,   0.69545, 3,    5540.93,  118.0,   0.69545
"SCN_CN15_9014_CEI69A", 13.8, 1,    5540.92,   -2.0,   0.69545, 2,     5540.9, -122.0,   0.69544, 3,    5540.92,  118.0,   0.69545
"SCN_CN15_9011_CEI69A", 13.8, 1,    5540.96,   -2.0,   0.69545, 2,    5540.93, -122.0,   0.69545, 3,    5540.95,  118.0,   0.69545
"SCN_CN15_9073_CEIRJ006_ATV", 13.8, 1,    5545.31,   -2.0,     0.696, 2,    5545.28, -122.0,   0.69599, 3,     5545.3,  118.0,     0.696
"SCN_CN15_9091_CEI148_ATV", 13.8, 1,    5545.29,   -2.0,     0.696, 2,    5545.27, -122.0,   0.69599, 3,    5545.29,  118.0,   0.69599
"SCN_CN15_9092_CEI148_ATV", 13.8, 1,    5545.28,   -2.0,   0.69599, 2,    5545.25, -122.0,   0.69599, 3,    5545.27,  118.0,   0.69599
"SCN_CN15_9089_CEI148_ATV", 13.8, 1,    5545.27,   -2.0,   0.69599, 2,    5545.25, -122.0,   0.69599, 3,    5545.27,  118.0,   0.69599
"SCN_CN15_9042_CEI69A", 13.8, 1,     5545.4,   -2.0,   0.69601, 2,    5545.38, -122.0,   0.69601, 3,    5545.39,  118.0,   0.69601
"SCN_CN15_9100_CEI072", 13.8, 1,    5941.13,   -1.6,   0.74568, 2,     5941.1, -121.6,   0.74567, 3,    5941.12,  118.4,   0.74568
"SCN_CN15_9101_CEI072", 13.8, 1,     5941.1,   -1.6,   0.74567, 2,    5941.07, -121.6,   0.74567, 3,    5941.09,  118.4,   0.74567
"SCN_CN15_9102_CEI072", 13.8, 1,    5941.06,   -1.6,   0.74567, 2,    5941.04, -121.6,   0.74567, 3,    5941.06,  118.4,   0.74567
"SCN_CN15_9103_CEI072", 13.8, 1,    5941.03,   -1.6,   0.74566, 2,       5941, -121.6,   0.74566, 3,    5941.02,  118.4,   0.74566
"SCN_CN15_9104_CEI072", 13.8, 1,       5941,   -1.6,   0.74566, 2,    5940.97, -121.6,   0.74566, 3,    5940.99,  118.4,   0.74566
"SCN_CN15_9105_CEI072", 13.8, 1,    5940.96,   -1.6,   0.74566, 2,    5940.94, -121.6,   0.74565, 3,    5940.96,  118.4,   0.74566
"SCN_CN15_9491_CEI109", 13.8, 1,    5568.78,   -1.9,   0.69894, 2,    5568.75, -121.9,   0.69894, 3,    5568.77,  118.1,   0.69894
"SCN_CN15_9492_CEI109", 13.8, 1,    5568.62,   -1.9,   0.69892, 2,    5568.59, -121.9,   0.69892, 3,    5568.61,  118.1,   0.69892
"SCN_CN15_9106_CEI072", 13.8, 1,    5940.93,   -1.6,   0.74565, 2,    5940.91, -121.6,   0.74565, 3,    5940.93,  118.4,   0.74565
"SCN_CN15_9107_CEI072", 13.8, 1,    5940.87,   -1.6,   0.74564, 2,    5940.84, -121.6,   0.74564, 3,    5940.86,  118.4,   0.74564
"SCN_CN15_9108_CEI072", 13.8, 1,    5940.82,   -1.6,   0.74564, 2,    5940.79, -121.6,   0.74563, 3,    5940.81,  118.4,   0.74564
"SCN_CN15_9109_CEI072", 13.8, 1,    5940.79,   -1.6,   0.74563, 2,    5940.77, -121.6,   0.74563, 3,    5940.79,  118.4,   0.74563
"SCN_CN15_9110_CEI072", 13.8, 1,    5940.76,   -1.6,   0.74563, 2,    5940.74, -121.6,   0.74563, 3,    5940.76,  118.4,   0.74563
"SCN_CN15_9111_CEI072", 13.8, 1,    5940.73,   -1.6,   0.74563, 2,     5940.7, -121.6,   0.74562, 3,    5940.72,  118.4,   0.74563
"SCN_CN15_9112_CEI072", 13.8, 1,    5940.69,   -1.6,   0.74562, 2,    5940.67, -121.6,   0.74562, 3,    5940.69,  118.4,   0.74562
"SCN_CN15_9113_CEI072", 13.8, 1,    5940.66,   -1.6,   0.74562, 2,    5940.63, -121.6,   0.74561, 3,    5940.65,  118.4,   0.74562
...
"SCN_CN15_592-0899-22", 13.8, 1,    5976.66,   -1.5,   0.75014, 2,    5976.64, -121.5,   0.75013, 3,    5976.65,  118.5,   0.75014
"SCN_CN15_592-0899-22_S", 13.8, 1,    5976.66,   -1.5,   0.75014, 2,    5976.64, -121.5,   0.75013, 3,    5976.65,  118.5,   0.75014
"SCN_CN15_9013_CEI69B", 13.8, 1,    5994.71,   -1.5,    0.7524, 2,    5994.69, -121.5,    0.7524, 3,    5994.71,  118.5,    0.7524
"SCN_CN15_9015_CEI69B_S", 13.8, 1,    5987.22,   -1.5,   0.75146, 2,     5987.2, -121.5,   0.75146, 3,    5987.21,  118.5,   0.75146
"SCN_CN15_9012_CEI69B", 13.8, 1,    6003.72,   -1.5,   0.75353, 2,     6003.7, -121.5,   0.75353, 3,    6003.72,  118.5,   0.75353
"SCN_CN15_9011_CEI69B", 13.8, 1,    6012.56,   -1.5,   0.75464, 2,    6012.53, -121.5,   0.75464, 3,    6012.55,  118.5,   0.75464
"SCN_CN15_9162_CEI068", 13.8, 1,    6023.67,   -1.5,   0.75604, 2,    6023.65, -121.5,   0.75603, 3,    6023.67,  118.5,   0.75604
"SCN_CN15_9163_CEI068", 13.8, 1,    6035.32,   -1.5,    0.7575, 2,    6035.29, -121.5,    0.7575, 3,    6035.31,  118.5,    0.7575
"SCN_CN15_9164_CEI068", 13.8, 1,    6051.51,   -1.5,   0.75953, 2,    6051.49, -121.5,   0.75953, 3,     6051.5,  118.5,   0.75953
"SCN_CN15_9451_CEI109", 13.8, 1,    5643.42,   -1.9,   0.70831, 2,     5643.4, -121.9,   0.70831, 3,    5643.42,  118.1,   0.70831
"SCN_CN15_9169_CEI068", 13.8, 1,     6071.5,   -1.5,   0.76204, 2,    6071.48, -121.5,   0.76204, 3,     6071.5,  118.5,   0.76204
"SCN_CN15_9170_CEI068", 13.8, 1,    6071.72,   -1.5,   0.76207, 2,     6071.7, -121.5,   0.76206, 3,    6071.72,  118.5,   0.76207
"SCN_CN15_9170_CEI068_S", 13.8, 1,    6071.72,   -1.5,   0.76207, 2,     6071.7, -121.5,   0.76206, 3,    6071.72,  118.5,   0.76207
"SCN_CN15_9171_CEI068", 13.8, 1,    6089.19,   -1.4,   0.76426, 2,    6089.16, -121.4,   0.76426, 3,    6089.18,  118.6,   0.76426
"SCN_CN15_9172_CEI068", 13.8, 1,    6108.52,   -1.4,   0.76669, 2,     6108.5, -121.4,   0.76668, 3,    6108.52,  118.6,   0.76669
"SCN_CN15_9182_CEI068", 13.8, 1,    6130.98,   -1.4,    0.7695, 2,    6130.96, -121.4,    0.7695, 3,    6130.97,  118.6,    0.7695
"SCN_CN15_9181_CEI068", 13.8, 1,    6130.93,   -1.4,    0.7695, 2,    6130.91, -121.4,    0.7695, 3,    6130.92,  118.6,    0.7695
"SCN_CN15_9182_CEI068_S", 13.8, 1,    6130.98,   -1.4,    0.7695, 2,    6130.96, -121.4,    0.7695, 3,    6130.97,  118.6,    0.7695
"SCN_CN15_9183_CEI068", 13.8, 1,    6154.43,   -1.4,   0.77245, 2,    6154.41, -121.4,   0.77245, 3,    6154.42,  118.6,   0.77245
"SCN_CN15_9183_CEI068_S", 13.8, 1,    6154.43,   -1.4,   0.77245, 2,    6154.41, -121.4,   0.77245, 3,    6154.42,  118.6,   0.77245
"SCN_CN15_9186_CEI068", 13.8, 1,    6171.82,   -1.4,   0.77463, 2,     6171.8, -121.4,   0.77463, 3,    6171.81,  118.6,   0.77463
"SCN_CN15_9107_CEI068", 13.8, 1,    6184.33,   -1.4,    0.7762, 2,    6184.31, -121.4,    0.7762, 3,    6184.33,  118.6,    0.7762
"SCN_CN15_9450_CEI109", 13.8, 1,    5643.37,   -1.9,    0.7083, 2,    5643.35, -121.9,    0.7083, 3,    5643.37,  118.1,    0.7083
"SCN_CN15_9103_CEI068", 13.8, 1,     6198.1,   -1.3,   0.77793, 2,    6198.08, -121.3,   0.77793, 3,     6198.1,  118.7,   0.77793
"SCN_CN15_9092_CEI068", 13.8, 1,    6208.97,   -1.3,   0.77929, 2,    6208.95, -121.3,   0.77929, 3,    6208.97,  118.7,   0.77929
"SCN_CN15_9091_CEI068", 13.8, 1,    6220.71,   -1.3,   0.78077, 2,    6220.69, -121.3,   0.78076, 3,     6220.7,  118.7,   0.78077
"SCN_CN15_9090_CEI068", 13.8, 1,    6242.49,   -1.3,    0.7835, 2,    6242.47, -121.3,    0.7835, 3,    6242.48,  118.7,    0.7835
"SCN_CN15_9089_CEI068_S", 13.8, 1,    6255.98,   -1.3,   0.78519, 2,    6255.96, -121.3,   0.78519, 3,    6255.97,  118.7,   0.78519
"SCN_CN15_9086_CEI068", 13.8, 1,    6273.95,   -1.3,   0.78745, 2,    6273.93, -121.3,   0.78745, 3,    6273.94,  118.7,   0.78745
"SCN_CN15_9085_CEI068", 13.8, 1,    6296.86,   -1.3,   0.79032, 2,    6296.84, -121.3,   0.79032, 3,    6296.85,  118.7,   0.79032
"SCN_CN15_9086_CEI068_S", 13.8, 1,    6273.95,   -1.3,   0.78745, 2,    6273.93, -121.3,   0.78745, 3,    6273.94,  118.7,   0.78745
"SCN_CN15_9082_CEI068", 13.8, 1,    6323.49,   -1.2,   0.79367, 2,    6323.47, -121.2,   0.79366, 3,    6323.48,  118.8,   0.79367
"SCN_CN15_9081_CEI068", 13.8, 1,    6351.19,   -1.2,   0.79714, 2,    6351.18, -121.2,   0.79714, 3,    6351.19,  118.8,   0.79714
"SCN_CN15_9080_CEI068", 13.8, 1,    6378.05,   -1.2,   0.80051, 2,    6378.03, -121.2,   0.80051, 3,    6378.05,  118.8,   0.80051
"SCN_CN15_9026_CEI201_ATV", 13.8, 1,    5560.89,   -2.0,   0.69795, 2,    5560.86, -122.0,   0.69795, 3,    5560.88,  118.0,   0.69795
"SCN_CN15_9027_CEI201_ATV", 13.8, 1,     5561.2,   -2.0,   0.69799, 2,    5561.17, -122.0,   0.69799, 3,    5561.19,  118.0,   0.69799
"SCN_CN15_9449_CEI109", 13.8, 1,    5643.33,   -1.9,    0.7083, 2,     5643.3, -121.9,    0.7083, 3,    5643.32,  118.1,    0.7083
"SCN_CN15_9079_CEI068", 13.8, 1,    6404.62,   -1.2,   0.80385, 2,     6404.6, -121.2,   0.80385, 3,    6404.62,  118.8,   0.80385
"SCN_CN15_9078_CEI068", 13.8, 1,    6431.22,   -1.1,   0.80719, 2,     6431.2, -121.1,   0.80719, 3,    6431.22,  118.9,   0.80719
"SCN_CN15_9077_CEI068", 13.8, 1,    6458.34,   -1.1,   0.81059, 2,    6458.32, -121.1,   0.81059, 3,    6458.33,  118.9,   0.81059
"SCN_CN15_9076_CEI068", 13.8, 1,    6484.88,   -1.1,   0.81392, 2,    6484.86, -121.1,   0.81392, 3,    6484.87,  118.9,   0.81392
"SCN_CN15_9075_CEI068", 13.8, 1,    6511.35,   -1.1,   0.81725, 2,    6511.33, -121.1,   0.81724, 3,    6511.34,  118.9,   0.81724
"SCN_CN15_9074_CEI068", 13.8, 1,     6538.5,   -1.1,   0.82065, 2,    6538.48, -121.1,   0.82065, 3,     6538.5,  118.9,   0.82065
"SCN_CN15_9073_CEI068", 13.8, 1,    6566.35,   -1.0,   0.82415, 2,    6566.33, -121.0,   0.82415, 3,    6566.34,  119.0,   0.82415
"SCN_CN15_9072_CEI068", 13.8, 1,    6593.11,   -1.0,   0.82751, 2,     6593.1, -121.0,   0.82751, 3,    6593.11,  119.0,   0.82751
"SCN_CN15_9071_CEI068", 13.8, 1,    6619.12,   -1.0,   0.83077, 2,    6619.11, -121.0,   0.83077, 3,    6619.12,  119.0,   0.83077
"SCN_CN15_9070_CEI068", 13.8, 1,    6638.13,   -1.0,   0.83316, 2,    6638.12, -121.0,   0.83316, 3,    6638.13,  119.0,   0.83316
"SCN_CN15_9448_CEI109", 13.8, 1,    5643.29,   -1.9,   0.70829, 2,    5643.27, -121.9,   0.70829, 3,    5643.29,  118.1,   0.70829
...